Version 4
SHEET 1 880 680
WIRE 0 32 -48 32
WIRE 128 32 80 32
WIRE 192 32 128 32
WIRE 320 32 272 32
WIRE 448 32 384 32
WIRE -48 80 -48 32
WIRE 128 80 128 32
WIRE 448 80 448 32
WIRE -48 208 -48 160
WIRE 128 208 128 160
WIRE 128 208 -48 208
WIRE 192 208 128 208
WIRE 448 208 448 160
WIRE 448 208 272 208
WIRE -48 272 -48 208
FLAG -48 272 0
SYMBOL res 96 16 R90
WINDOW 0 0 56 VBottom 2
WINDOW 3 32 56 VTop 2
SYMATTR InstName Rout
SYMATTR Value 50
SYMBOL res 112 176 M180
WINDOW 0 36 76 Left 2
WINDOW 3 36 40 Left 2
SYMATTR InstName R0
SYMATTR Value 4.7
SYMBOL res 176 192 M90
WINDOW 0 0 56 VBottom 2
WINDOW 3 32 56 VTop 2
SYMATTR InstName R2
SYMATTR Value 4.7
SYMBOL res 432 176 M180
WINDOW 0 36 76 Left 2
WINDOW 3 36 40 Left 2
SYMATTR InstName R1
SYMATTR Value 30
SYMBOL cap 384 16 R90
WINDOW 0 0 32 VBottom 2
WINDOW 3 32 32 VTop 2
SYMATTR InstName C1
SYMATTR Value 470e-12
SYMBOL ind 288 16 R90
WINDOW 0 5 56 VBottom 2
WINDOW 3 32 56 VTop 2
SYMATTR InstName L1
SYMATTR Value 47e-6
SYMBOL voltage -48 64 R0
WINDOW 123 24 124 Left 2
WINDOW 39 0 0 Left 2
SYMATTR Value2 AC 1
SYMATTR InstName V1
SYMATTR Value ""
TEXT 352 272 Left 2 !.ac dec 1000 500k 5Meg
